Version 4
SHEET 1 1188 680
WIRE -224 -256 -224 -320
WIRE -192 -256 -224 -256
WIRE -80 -256 -112 -256
WIRE -32 -256 -80 -256
WIRE 176 -256 -32 -256
WIRE 304 -256 176 -256
WIRE 624 -256 304 -256
WIRE 624 -240 624 -256
WIRE 304 -176 304 -256
WIRE 624 -96 624 -160
WIRE 768 -96 624 -96
WIRE 848 -96 832 -96
WIRE 960 -96 848 -96
WIRE 1120 -96 960 -96
WIRE -80 -80 -80 -256
WIRE -80 -80 -192 -80
WIRE 304 -80 304 -112
WIRE -32 -64 -32 -256
WIRE -32 -64 -176 -64
WIRE 848 -48 848 -96
WIRE -176 -32 -176 -64
WIRE 176 -32 176 -256
WIRE 176 -32 160 -32
WIRE 624 -32 624 -96
WIRE 960 16 960 -96
WIRE 1120 16 1120 -96
WIRE -192 48 -192 -80
WIRE -176 48 -192 48
WIRE 384 48 160 48
WIRE 400 48 384 48
WIRE 576 48 464 48
WIRE 848 64 848 32
WIRE 848 64 768 64
WIRE 848 96 848 64
WIRE 464 112 464 48
WIRE -224 128 -224 -256
WIRE -176 128 -224 128
WIRE 272 128 160 128
WIRE 272 144 272 128
WIRE 384 160 384 48
WIRE 400 160 384 160
WIRE 384 192 384 160
WIRE -176 208 -224 208
WIRE 176 208 160 208
WIRE 1120 224 1120 96
WIRE 272 240 272 208
WIRE -224 256 -224 208
WIRE 464 272 464 208
WIRE 624 272 624 64
WIRE 848 272 848 176
WIRE 960 272 960 80
WIRE 176 352 176 208
WIRE 768 352 768 64
WIRE 768 352 176 352
FLAG 272 240 0
FLAG -224 256 0
FLAG -432 176 0
FLAG -432 96 Vcc
FLAG 384 272 0
FLAG 464 272 0
FLAG 624 272 0
FLAG 960 272 0
FLAG 848 272 0
FLAG -224 -320 Vcc
FLAG 304 -80 0
FLAG 1120 224 0
SYMBOL mc34063 64 64 R0
SYMATTR InstName U1
SYMATTR SpiceModel mc34063
SYMBOL cap 256 144 R0
SYMATTR InstName C1
SYMATTR Value 680p
SYMBOL voltage -432 80 R0
WINDOW 123 0 0 Left 0
WINDOW 39 24 124 Left 2
SYMATTR SpiceLine Rser=0.01
SYMATTR InstName V1
SYMATTR Value 12
SYMBOL diode 400 64 R270
WINDOW 0 32 32 VTop 2
WINDOW 3 0 32 VBottom 2
SYMATTR InstName D1
SYMATTR Value 1N914
SYMBOL pnp 400 208 M180
SYMATTR InstName Q1
SYMATTR Value 2N3906
SYMBOL res 368 176 R0
SYMATTR InstName R1
SYMATTR Value 1k
SYMBOL nmos 576 -32 R0
SYMATTR InstName M1
SYMATTR Value IRFP90N20D
SYMBOL diode 768 -80 R270
WINDOW 0 32 32 VTop 2
WINDOW 3 0 32 VBottom 2
SYMATTR InstName D2
SYMATTR Value BAS21HM
SYMBOL cap 944 16 R0
SYMATTR InstName C2
SYMATTR Value 3.3µ
SYMBOL res 832 -64 R0
SYMATTR InstName R2
SYMATTR Value 475k
SYMBOL res 832 80 R0
SYMATTR InstName R3
SYMATTR Value 3.1k
SYMBOL ind 608 -256 R0
SYMATTR InstName L1
SYMATTR Value 100µ
SYMBOL res -96 -272 R90
WINDOW 0 0 56 VBottom 2
WINDOW 3 32 56 VTop 2
SYMATTR InstName R4
SYMATTR Value 0.22
SYMBOL cap 288 -176 R0
SYMATTR InstName C3
SYMATTR Value 220µ
SYMBOL res 1104 0 R0
SYMATTR InstName R5
SYMATTR Value 10k
TEXT -464 360 Left 2 !.tran 10ms uic
TEXT -456 408 Left 2 !.inc mc34063.lib
TEXT -456 456 Left 2 !.options Gmin=1e-9  method=Gear
